* Q2SCR522M NPN BJT model
* Model Generated by ROHM
* All Rights Reserved
* Commercial Use or
* Resale Restricted
* Date: 2010/07/14
.MODEL Q2SCR522M NPN
+ IS=25.000E-15
+ BF=280.11
+ VAF=59.300
+ IKF=1.0185
+ ISE=25.001E-15
+ NE=1.5688
+ BR=7.6500
+ VAR=11.400
+ IKR=.12432
+ ISC=548.77E-15
+ NC=1.3139
+ NK=.94463
+ RE=.3
+ RB=3.2380
+ RC=.24655
+ CJE=15.963E-12
+ VJE=.65372
+ MJE=.34399
+ CJC=5.7083E-12
+ VJC=.61423
+ MJC=.36804
+ TF=293.01E-12
+ XTF=318.53
+ VTF=83.819
+ ITF=9.7266
+ TR=51.200E-9
+ XTB=1.5000
*$
*///////////////////////////////////////
* Q2SAR522M PNP BJT model
* Model Generated by ROHM
* All Rights Reserved
* Commercial Use or
* Resale Restricted
* Date: 2010/07/14
.MODEL Q2SAR522M PNP
+ IS=20.000E-15
+ BF=311.65
+ VAF=25.800
+ IKF=.59878
+ ISE=20.000E-15
+ NE=1.4546
+ BR=10.057
+ VAR=6.1100
+ IKR=53.963E-3
+ ISC=413.88E-15
+ NC=1.5497
+ NK=.77781
+ RE=.25
+ RB=5.2646
+ RC=.45936
+ CJE=13.254E-12
+ VJE=.92613
+ MJE=.41651
+ CJC=10.583E-12
+ VJC=1.2414
+ MJC=.55143
+ TF=361.87E-12
+ XTF=8.6164
+ VTF=20.767
+ ITF=.86632
+ TR=25.500E-9
+ XTB=1.5000
*$
*/////////////////////////////////////////////////
.MODEL D1n5817 d
+IS=2.93092e-05 RS=0.0524736 N=1.33711 EG=0.1
+XTI=0.325839 BV=20 IBV=0.001 CJO=2.01549e-10
+VJ=8.0542 M=0.9 FC=0.5 TT=1.47806e-08
+KF=0 AF=1
*$
*/////////////////////////////////////////////////
.MODEL DI_RS2M D  ( IS=169u RS=4.81m BV=1.00k IBV=5.00u
+ CJO=55.5p  M=0.333 N=6.02 TT=720n )
*$
*/////////////////////////////////////////////////
*SRC=1N4007;DI_1N4007;Diodes;Si;  1.00kV  1.00A  3.00us   Diodes, Inc. diode
.MODEL DI_1N4007 D  ( IS=76.9p RS=42.0m BV=1.00k IBV=5.00u
+ CJO=26.5p  M=0.333 N=1.45 TT=4.32u )
*$
*/////////////////////////////////////////////////
.MODEL DGDZ3_9 D
+ IS=142.50E-18
+ N=1.0003
+ RS=.173
+ IKF=14.923
+ CJO=127.00E-12
+ M=.29863
+ VJ=.81521
+ ISR=102.34E-12
+ BV=3.9500
+ IBV=5.0000E-3
+ TT=47.609E-9
+ NBV=6
+ TBV1=-0.0004
*$
*/////////////////////////////////////////////////
.MODEL DGDZ4_7 D
+ IS=257.15E-18
+ N=1.0160
+ RS=.18331
+ IKF=4.6355
+ CJO=115.70E-12
+ M=.32585
+ VJ=.80819
+ ISR=89.212E-12
+ BV=4.6600
+ IBV=5.0000E-3
+ TT=57.708E-9
+ NBV=7.5
+ TBV1=-0.0003
*$
*/////////////////////////////////////////////////
.SUBCKT LM339    1 2 3 4 5
*
  F1    9  3 V1 1
  IEE   3  7 DC 100.0E-6
  VI1  21  1 DC .75
  VI2  22  2 DC .75
  Q1    9 21  7 QIN
  Q2    8 22  7 QIN
  Q3    9  8  4 QMO
  Q4    8  8  4 QMI
.MODEL QIN PNP(IS=800.0E-18 BF=2.000E3)
.MODEL QMI NPN(IS=800.0E-18 BF=1002)
.MODEL QMO NPN(IS=800.0E-18 BF=1000 CJC=1E-15 TR=807.4E-9)
  E1   10  4  9  4  1
  V1   10 11 DC 0
  Q5    5 11  4 QOC
.MODEL QOC NPN(IS=800.0E-18 BF=20.29E3 CJC=1E-15 TF=942.6E-12 TR=543.8E-9)
  DP    4  3 DX
  RP 3  4 46.3E3
.MODEL DX  D(IS=800.0E-18)
*
.ENDS
*$
*/////////////////////////////////////////////////
.model  D02r  D
+BV = 16
+IBV = 1m
+CJO = 200p
+M = 0.3333
+RS = 1
+VJ = 0.6
+TT = 100n
*$
*/////////////////////////////////////////////////
.model  D02f   D
+BV = 16
+IBV = 1m
+CJO = 10.4p
+M = 0.3333
+RS = 2
+VJ = 0.6
+TT = 100n
*$
*/////////////////////////////////////////////////
* Filename:  BFR93AW_SPICE.PRM
* BFR93AW SPICE MODEL
* PHILIPS SEMICONDUCTORS
* Date : September 1995
*
* PACKAGE : SOT323 DIE MODEL : BFR91A
* 1: COLLECTOR; 2: BASE; 3: EMITTER
.SUBCKT BFR93AW 1 2 3
Q1 6 5 7 7 BFR91A
* SOT323 parasitic model
               Lb  4 5 .6n 
               Le  7 8 .6n
               L1  2 4 .34n
               L2  1 6 .1n
               L3  3 8 .34n
              Ccb  4 6 100f
              Cbe  4 8 2f
*
* PHILIPS SEMICONDUCTORS                                     Version:   1.0
* Filename:   BFR91A.PRM                                     Date: Feb 1992
*
.MODEL  BFR91A   NPN
+              IS = 1.32873E-015
+              BF = 1.02000E+002
+              NF = 1.00025E+000
+             VAF = 5.19033E+001
+             IKF = 8.15511E+000
+             ISE = 1.39029E-014
+              NE = 1.51292E+000
+              BR = 1.76953E+001
+              NR = 9.94038E-001
+             VAR = 3.28032E+000
+             IKR = 1.00000E+001
+             ISC = 1.04297E-015
+              NC = 1.18993E+000
+              RB = 1.00000E+001
+             IRB = 1.00000E-006
+             RBM = 1.00000E+001
+              RE = 7.63636E-001
+              RC = 9.00000E+000
+              EG = 1.11000E+000
+             XTI = 3.00000E+000
+             CJE = 2.03216E-012
+             VJE = 6.00000E-001
+             MJE = 2.90076E-001
+              TF = 6.55790E-012
+             XTF = 3.89752E+001
+             VTF = 1.09308E+001
+             ITF = 5.21078E-001
+             CJC = 1.00353E-012
+             VJC = 3.40808E-001
+             MJC = 1.94223E-001
.ENDS
*$
*///////////////////////////////////////////////////////////////////////
*SRC=1N4003;DI_1N4003;Diodes;Si;  200V  1.00A  3.00us   Diodes, Inc. diode
.MODEL DI_1N4003 D  ( IS=76.9p RS=42.0m BV=200 IBV=5.00u
+ CJO=39.8p  M=0.333 N=1.45 TT=4.32u )
*$
*SRC=1N4004;DI_1N4004;Diodes;Si;  400V  1.00A  3.00us   Diodes, Inc. diode
.MODEL DI_1N4004 D  ( IS=76.9p RS=42.0m BV=400 IBV=5.00u
+ CJO=39.8p  M=0.333 N=1.45 TT=4.32u )
*$
*///////////////////////////////////////////////////////////////////////
* http://www.rohm.com/products/spice/bip/lib/2sc2412k.lib
* Q2SC2412K NPN BJT model
* Date: 2006/11/30
.MODEL Q2SC2412K NPN
+ IS=70.000E-15
+ BF=277.08
+ VAF=114.03
+ IKF=1
+ ISE=70.000E-15
+ NE=1.8934
+ BR=11.565
+ VAR=100
+ IKR=.11266
+ ISC=1.0228E-12
+ NC=1.3260
+ NK=.71869
+ RE=.2
+ RB=13.897
+ RC=1.2190
+ CJE=11.342E-12
+ MJE=.38289
+ CJC=4.0230E-12
+ MJC=.34629
+ TF=338.92E-12
+ XTF=4.0449
+ VTF=167.36
+ ITF=.85959
+ TR=110.25E-9
+ XTB=1.5000
*$
*///////////////////////////////////////////////////////////////////////
* http://www2.renesas.com/discrete/en/spice/bipolar/spice_bipolar.html
.MODEL Q_2SC1623 NPN
**************************************
*      Model Generated by NEC        *
*         All Rights Reserved        *
*Commercial Use or Resale Restricted *
**************************************
+ IS=37.434E-15
+ BF=211.05
+ VAF=535.19
+ IKF=1
+ ISE=37.434E-15
+ NE=1.5790
+ BR=3.2909
+ VAR=100
+ IKR=34.632E-3
+ ISC=223.21E-15
+ NC=2.0893
+ NK=.797
+ RB=1.6225
+ RC=.71602
+ CJE=21.352E-12
+ VJE=.36931
+ MJE=.38073
+ CJC=8.1208E-12
+ VJC=.35
+ MJC=.35629
+ TF=472.90E-12
+ XTF=50.942
+ VTF=98.503
+ ITF=1.2630
+ TR=10.000E-9
+ NR=1
+ NF=1
+ TRC1=0.0E-3
+ TRB1=0.0E-2
+ XTB=1.7
+ XTI=6
*$
*///////////////////////////////////////////////////////////////////////
* http://www.onsemi.com/pub/Collateral/NCP1117%20PSPICE%20MODELS.ZIP
.SUBCKT ncp1117_adj1-x 3 1 2
*
*node 1: VREF (OUTPUT)
*node 2: Ground (Common)
*node 3: Line Voltage
ECCX 131 2 135 2 1.0
VXX 133 2 DC 0
FSET6 2 135 VSENS2 1
FPP 3 2 VXX 1.0
R_YY 31 2 1e6
R_XX 15 2 1e8
R_ZZ 36 2 1e6
R_QQ 65 2 1e8
RXX 1 2 1e8
VSENS1 10 1 DC 0
ISET 2 15 DC 1e-3
DON1 15 16 DMOD1
VSENS2 16 19 DC 0
DON2 15 17 DMOD1
EON2 18 2 3 2 1
FYY 3 2 VSENS1 1
DON3 15 27 DMOD1
VDROP3 28 27 DC 2
EON3 28 2 3 2 4
ELINE 13 42 66 2 1
FSET2 2 36 VSENS2 1
DSC1 36 35 DMOD1
RCL1 36 37 10
DSC2 37 38 DMOD1
ESCCON 38 39 30 2 1
VSCCON 39 40 DC 0
FSC 19 2 VSCCON 1
FSET3 2 31 VSENS2 1
DOV1 31 32 DMOD1
EOV1 32 2 3 1 1
DOV2 31 33 DMOD1
ISET4 2 30 DC 1e-3
ELOAD 41 2 77 2 -1
ERIPPLE 42 41 72 2 1
EREF 12 13 19 2 1
E3 52 2 3 2 1
CBYPS 54 2 0.001
VORB 54 60 DC 0
RB 60 2 1e3
RBR 72 2 1000
CBS2 52 71 1
RSTEP 77 2 1
FRB 2 65 VORB 1
DRB2 65 67 DMOD1
VXRB 67 68 DC -1
EXRB 68 2 1 2 1
DRB1 65 66 DMOD1
RB1 66 2 1000
.MODEL DMOD1 D
*-- DMOD1 DEFAULT PARAMETERS
*IS=1e-14 RS=0 N=1 TT=0 CJO=0
*VJ=1 M=0.5 EG=1.11 XTI=3 FC=0.5
*KF=0 AF=1 BV=inf IBV=1e-3 TNOM=27
EXX 132 131 3 131 2.88462e-06
RST6 135 2 15000
RIQX 133 132 RQIX 2884.62
.MODEL RQIX RES (TC1=-0)
RSET 19 2 RSET 1250
.MODEL RSET RES (TC1=8e-05 TC2=5.28e-07)
RS1 10 12 0.0071
VDROPX 18 17 0.77
HSENSE1 35 2 VSENS1 8
RISC 30 2 RISC 10000
.MODEL RISC RES (TC1=0)
ROV 34 2 2000
VOV 33 34 18
EOV2 2 40 34 2 1
FIQD 3 2 VSENS1 0
RY 52 54 2e+07
RA 72 73 3.65905e+07
RYR 71 72 4.46584e+06
CRA 52 73 3.8765e-12
HSTEP 76 2 VSENS1 0.071
CSTEP 76 77 5.30516e-06
.ENDS ncp1117_adj1-x
*$
.SUBCKT ncp1117_285-x 3 1 2
**************************************
*      Model Generated by MODPEX     *
*Copyright(c) Symmetry Design Systems*
*         All Rights Reserved        *
*    UNPUBLISHED LICENSED SOFTWARE   *
*   Contains Proprietary Information *
*      Which is The Property of      *
*     SYMMETRY OR ITS LICENSORS      *
*   Modeling services provided by    *
*      Interface Technologies        *
*            www.i-t.com             *
**************************************
*Model generated on 12/19/2004
*Rev. Date: Dec. 20, 1994
*Positive Fixed Regulator
*External Node Designations
*node 1: VREG (OUTPUT)
*node 2: Ground (Common)
*node 3: Line Voltage
ECCX 131 2 135 2 1.0
VXX 133 2 DC 0
FSET6 2 135 VSENS2 1
FPP 3 2 VXX 1.0
R_YY 31 2 1e6
R_XX 15 2 1e8
R_ZZ 36 2 1e6
R_QQ 65 2 1e8
RXX 1 2 1e8
VSENS1 10 1 DC 0
ISET 2 15 DC 1e-3
DON1 15 16 DMOD1
VSENS2 16 19 DC 0
DON2 15 17 DMOD1
EON2 18 2 3 2 1
FYY 3 2 VSENS1 1
DON3 15 27 DMOD1
VDROP3 28 27 DC 2
EON3 28 2 3 2 4
ELINE 13 42 66 2 1
FSET2 2 36 VSENS2 1
DSC1 36 35 DMOD1
RCL1 36 37 10
DSC2 37 38 DMOD1
ESCCON 38 39 30 2 1
VSCCON 39 40 DC 0
FSC 19 2 VSCCON 1
FSET3 2 31 VSENS2 1
DOV1 31 32 DMOD1
EOV1 32 2 3 1 1
DOV2 31 33 DMOD1
ISET4 2 30 DC 1e-3
ELOAD 41 2 77 2 -1
ERIPPLE 42 41 72 2 1
EREF 12 13 19 2 1
E3 52 2 3 2 1
CBYPS 54 2 0.001
VORB 54 60 DC 0
RB 60 2 1e3
RBR 72 2 1000
CBS2 52 71 1
RSTEP 77 2 1
FRB 2 65 VORB 1
DRB2 65 67 DMOD1
VXRB 67 68 DC -1
EXRB 68 2 1 2 1
DRB1 65 66 DMOD1
RB1 66 2 1000
.MODEL DMOD1 D
*-- DMOD1 DEFAULT PARAMETERS
*IS=1e-14 RS=0 N=1 TT=0 CJO=0
*VJ=1 M=0.5 EG=1.11 XTI=3 FC=0.5
*KF=0 AF=1 BV=inf IBV=1e-3 TNOM=27
EXX 132 131 3 131 1.81818e-06
RST6 135 2 10000
RIQX 133 132 RQIX 1818.18
.MODEL RQIX RES(TC1=-0.001163)
RSET 19 2 RSET 2850
.MODEL RSET RES(
+TC1=0 
+TC2=0)
RS1 10 12 0.0048
VDROPX 18 17 0.77
HSENSE1 35 2 VSENS1 6.66667
RISC 30 2 RISC 10000	
.MODEL RISC RES(TC1=0)
ROV 34 2 1000
VOV 33 34 18
EOV2 2 40 34 2 3.33333
FIQD 3 2 VSENS1 0
RY 52 54 1.22684e+07
RA 72 73 1e08
RYR 71 72 2.51089e+06
CRA 52 73 0.0001
HSTEP 76 2 VSENS1 0.048
CSTEP 76 77 5.30516e-06
.ENDS ncp1117_285-x
*$
.SUBCKT ncp1117_120-x 3 1 2
**************************************
*      Model Generated by MODPEX     *
*Copyright(c) Symmetry Design Systems*
*         All Rights Reserved        *
*    UNPUBLISHED LICENSED SOFTWARE   *
*   Contains Proprietary Information *
*      Which is The Property of      *
*     SYMMETRY OR ITS LICENSORS      *
*   Modeling services provided by    *
*      Interface Technologies        *
*            www.i-t.com             *
**************************************
*Model generated on 12/19/2004
*Rev. Date: Dec. 20, 1994
*Positive Fixed Regulator
*External Node Designations
*node 1: VREG (OUTPUT)
*node 2: Ground (Common)
*node 3: Line Voltage
ECCX 131 2 135 2 1.0
VXX 133 2 DC 0
FSET6 2 135 VSENS2 1
FPP 3 2 VXX 1.0
R_YY 31 2 1e6
R_XX 15 2 1e8
R_ZZ 36 2 1e6
R_QQ 65 2 1e8
RXX 1 2 1e8
VSENS1 10 1 DC 0
ISET 2 15 DC 1e-3
DON1 15 16 DMOD1
VSENS2 16 19 DC 0
DON2 15 17 DMOD1
EON2 18 2 3 2 1
FYY 3 2 VSENS1 1
DON3 15 27 DMOD1
VDROP3 28 27 DC 2
EON3 28 2 3 2 4
ELINE 13 42 66 2 1
FSET2 2 36 VSENS2 1
DSC1 36 35 DMOD1
RCL1 36 37 10
DSC2 37 38 DMOD1
ESCCON 38 39 30 2 1
VSCCON 39 40 DC 0
FSC 19 2 VSCCON 1
FSET3 2 31 VSENS2 1
DOV1 31 32 DMOD1
EOV1 32 2 3 1 1
DOV2 31 33 DMOD1
ISET4 2 30 DC 1e-3
ELOAD 41 2 77 2 -1
ERIPPLE 42 41 72 2 1
EREF 12 13 19 2 1
E3 52 2 3 2 1
CBYPS 54 2 0.001
VORB 54 60 DC 0
RB 60 2 1e3
RBR 72 2 1000
CBS2 52 71 1
RSTEP 77 2 1
FRB 2 65 VORB 1
DRB2 65 67 DMOD1
VXRB 67 68 DC -1
EXRB 68 2 1 2 1
DRB1 65 66 DMOD1
RB1 66 2 1000
.MODEL DMOD1 D
*-- DMOD1 DEFAULT PARAMETERS
*IS=1e-14 RS=0 N=1 TT=0 CJO=0
*VJ=1 M=0.5 EG=1.11 XTI=3 FC=0.5
*KF=0 AF=1 BV=inf IBV=1e-3 TNOM=27
EXX 132 131 3 131 3.33333e-06
RST6 135 2 20000
RIQX 133 132 RQIX 3333.33
.MODEL RQIX RES(TC1=-0.001163)
RSET 19 2 RSET 12000
.MODEL RSET RES(
+TC1=0 
+TC2=0)
RS1 10 12 0.02
VDROPX 18 17 0.77
HSENSE1 35 2 VSENS1 6.66667
RISC 30 2 RISC 10000	
.MODEL RISC RES(TC1=0)
ROV 34 2 1000
VOV 33 34 18
EOV2 2 40 34 2 3.33333
FIQD 3 2 VSENS1 0
RY 52 54 1.00402e+07
RA 72 73 1e08
RYR 71 72 500187
CRA 52 73 0.0001
HSTEP 76 2 VSENS1 0.2
CSTEP 76 77 5.30516e-06
.ENDS ncp1117_120-x
*$
.SUBCKT ncp1117_50-x 3 1 2
**************************************
*      Model Generated by MODPEX     *
*Copyright(c) Symmetry Design Systems*
*         All Rights Reserved        *
*    UNPUBLISHED LICENSED SOFTWARE   *
*   Contains Proprietary Information *
*      Which is The Property of      *
*     SYMMETRY OR ITS LICENSORS      *
*   Modeling services provided by    *
*      Interface Technologies        *
*            www.i-t.com             *
**************************************
*Model generated on 12/19/2004
*Rev. Date: Dec. 20, 1994
*Positive Fixed Regulator
*External Node Designations
*node 1: VREG (OUTPUT)
*node 2: Ground (Common)
*node 3: Line Voltage
ECCX 131 2 135 2 1.0
VXX 133 2 DC 0
FSET6 2 135 VSENS2 1
FPP 3 2 VXX 1.0
R_YY 31 2 1e6
R_XX 15 2 1e8
R_ZZ 36 2 1e6
R_QQ 65 2 1e8
RXX 1 2 1e8
VSENS1 10 1 DC 0
ISET 2 15 DC 1e-3
DON1 15 16 DMOD1
VSENS2 16 19 DC 0
DON2 15 17 DMOD1
EON2 18 2 3 2 1
FYY 3 2 VSENS1 1
DON3 15 27 DMOD1
VDROP3 28 27 DC 2
EON3 28 2 3 2 4
ELINE 13 42 66 2 1
FSET2 2 36 VSENS2 1
DSC1 36 35 DMOD1
RCL1 36 37 10
DSC2 37 38 DMOD1
ESCCON 38 39 30 2 1
VSCCON 39 40 DC 0
FSC 19 2 VSCCON 1
FSET3 2 31 VSENS2 1
DOV1 31 32 DMOD1
EOV1 32 2 3 1 1
DOV2 31 33 DMOD1
ISET4 2 30 DC 1e-3
ELOAD 41 2 77 2 -1
ERIPPLE 42 41 72 2 1
EREF 12 13 19 2 1
E3 52 2 3 2 1
CBYPS 54 2 0.001
VORB 54 60 DC 0
RB 60 2 1e3
RBR 72 2 1000
CBS2 52 71 1
RSTEP 77 2 1
FRB 2 65 VORB 1
DRB2 65 67 DMOD1
VXRB 67 68 DC -1
EXRB 68 2 1 2 1
DRB1 65 66 DMOD1
RB1 66 2 1000
.MODEL DMOD1 D
*-- DMOD1 DEFAULT PARAMETERS
*IS=1e-14 RS=0 N=1 TT=0 CJO=0
*VJ=1 M=0.5 EG=1.11 XTI=3 FC=0.5
*KF=0 AF=1 BV=inf IBV=1e-3 TNOM=27
EXX 132 131 3 131 2.5e-06
RST6 135 2 15000
RIQX 133 132 RQIX 2500	
.MODEL RQIX RES(TC1=-0.001163)
RSET 19 2 RSET 5000
.MODEL RSET RES(
+TC1=0 
+TC2=0)
RS1 10 12 0.0084
VDROPX 18 17 0.77
HSENSE1 35 2 VSENS1 6.66667
RISC 30 2 RISC 10000	
.MODEL RISC RES(TC1=0)
ROV 34 2 1000
VOV 33 34 18
EOV2 2 40 34 2 3.33333
FIQD 3 2 VSENS1 0
RY 52 54 1.11111e+07
RA 72 73 1e08
RYR 71 72 1.12102e+06
CRA 52 73 0.0001
HSTEP 76 2 VSENS1 0.084
CSTEP 76 77 5.30516e-06
.ENDS ncp1117_50-x
*$
.SUBCKT ncp1117_33-x 3 1 2
**************************************
*      Model Generated by MODPEX     *
*Copyright(c) Symmetry Design Systems*
*         All Rights Reserved        *
*    UNPUBLISHED LICENSED SOFTWARE   *
*   Contains Proprietary Information *
*      Which is The Property of      *
*     SYMMETRY OR ITS LICENSORS      *
*   Modeling services provided by    *
*      Interface Technologies        *
*            www.i-t.com             *
**************************************
*Model generated on 12/19/2004
*Rev. Date: Dec. 20, 1994
*Positive Fixed Regulator
*External Node Designations
*node 1: VREG (OUTPUT)
*node 2: Ground (Common)
*node 3: Line Voltage
ECCX 131 2 135 2 1.0
VXX 133 2 DC 0
FSET6 2 135 VSENS2 1
FPP 3 2 VXX 1.0
R_YY 31 2 1e6
R_XX 15 2 1e8
R_ZZ 36 2 1e6
R_QQ 65 2 1e8
RXX 1 2 1e8
VSENS1 10 1 DC 0
ISET 2 15 DC 1e-3
DON1 15 16 DMOD1
VSENS2 16 19 DC 0
DON2 15 17 DMOD1
EON2 18 2 3 2 1
FYY 3 2 VSENS1 1
DON3 15 27 DMOD1
VDROP3 28 27 DC 2
EON3 28 2 3 2 4
ELINE 13 42 66 2 1
FSET2 2 36 VSENS2 1
DSC1 36 35 DMOD1
RCL1 36 37 10
DSC2 37 38 DMOD1
ESCCON 38 39 30 2 1
VSCCON 39 40 DC 0
FSC 19 2 VSCCON 1
FSET3 2 31 VSENS2 1
DOV1 31 32 DMOD1
EOV1 32 2 3 1 1
DOV2 31 33 DMOD1
ISET4 2 30 DC 1e-3
ELOAD 41 2 77 2 -1
ERIPPLE 42 41 72 2 1
EREF 12 13 19 2 1
E3 52 2 3 2 1
CBYPS 54 2 0.001
VORB 54 60 DC 0
RB 60 2 1e3
RBR 72 2 1000
CBS2 52 71 1
RSTEP 77 2 1
FRB 2 65 VORB 1
DRB2 65 67 DMOD1
VXRB 67 68 DC -1
EXRB 68 2 1 2 1
DRB1 65 66 DMOD1
RB1 66 2 1000
.MODEL DMOD1 D
*-- DMOD1 DEFAULT PARAMETERS
*IS=1e-14 RS=0 N=1 TT=0 CJO=0
*VJ=1 M=0.5 EG=1.11 XTI=3 FC=0.5
*KF=0 AF=1 BV=inf IBV=1e-3 TNOM=27
EXX 132 131 3 131 2.5e-06
RST6 135 2 15000
RIQX 133 132 RQIX 2500		  
.MODEL RQIX RES(TC1=-0.001163)
RSET 19 2 RSET 3300
.MODEL RSET RES(
+TC1=0 
+TC2=0)
RS1 10 12 0.0054
VDROPX 18 17 0.77
HSENSE1 35 2 VSENS1 6.66667
RISC 30 2 RISC 10000	
.MODEL RISC RES(TC1=0)
ROV 34 2 1000
VOV 33 34 18
EOV2 2 40 34 2 3.33333
FIQD 3 2 VSENS1 0
RY 52 54 1.25219e+07
RA 72 73 1e08
RYR 71 72 1.58389e+06
CRA 52 73 0.0001
HSTEP 76 2 VSENS1 0.054
CSTEP 76 77 5.30516e-06
.ENDS ncp1117_33-x
*$
.SUBCKT ncp1117_25-x 3 1 2
**************************************
*      Model Generated by MODPEX     *
*Copyright(c) Symmetry Design Systems*
*         All Rights Reserved        *
*    UNPUBLISHED LICENSED SOFTWARE   *
*   Contains Proprietary Information *
*      Which is The Property of      *
*     SYMMETRY OR ITS LICENSORS      *
*   Modeling services provided by    *
*      Interface Technologies        *
*            www.i-t.com             *
**************************************
*Model generated on 12/19/2004
*Rev. Date: Dec. 20, 1994
*Positive Fixed Regulator
*External Node Designations
*node 1: VREG (OUTPUT)
*node 2: Ground (Common)
*node 3: Line Voltage
ECCX 131 2 135 2 1.0
VXX 133 2 DC 0
FSET6 2 135 VSENS2 1
FPP 3 2 VXX 1.0
R_YY 31 2 1e6
R_XX 15 2 1e8
R_ZZ 36 2 1e6
R_QQ 65 2 1e8
RXX 1 2 1e8
VSENS1 10 1 DC 0
ISET 2 15 DC 1e-3
DON1 15 16 DMOD1
VSENS2 16 19 DC 0
DON2 15 17 DMOD1
EON2 18 2 3 2 1
FYY 3 2 VSENS1 1
DON3 15 27 DMOD1
VDROP3 28 27 DC 2
EON3 28 2 3 2 4
ELINE 13 42 66 2 1
FSET2 2 36 VSENS2 1
DSC1 36 35 DMOD1
RCL1 36 37 10
DSC2 37 38 DMOD1
ESCCON 38 39 30 2 1
VSCCON 39 40 DC 0
FSC 19 2 VSCCON 1
FSET3 2 31 VSENS2 1
DOV1 31 32 DMOD1
EOV1 32 2 3 1 1
DOV2 31 33 DMOD1
ISET4 2 30 DC 1e-3
ELOAD 41 2 77 2 -1
ERIPPLE 42 41 72 2 1
EREF 12 13 19 2 1
E3 52 2 3 2 1
CBYPS 54 2 0.001
VORB 54 60 DC 0
RB 60 2 1e3
RBR 72 2 1000
CBS2 52 71 1
RSTEP 77 2 1
FRB 2 65 VORB 1
DRB2 65 67 DMOD1
VXRB 67 68 DC -1
EXRB 68 2 1 2 1
DRB1 65 66 DMOD1
RB1 66 2 1000
.MODEL DMOD1 D
*-- DMOD1 DEFAULT PARAMETERS
*IS=1e-14 RS=0 N=1 TT=0 CJO=0
*VJ=1 M=0.5 EG=1.11 XTI=3 FC=0.5
*KF=0 AF=1 BV=inf IBV=1e-3 TNOM=27
EXX 132 131 3 131 1.81818e-06
RST6 135 2 10000
RIQX 133 132 RQIX 1818.18	
.MODEL RQIX RES(TC1=-0.001163)
RSET 19 2 RSET 2500
.MODEL RSET RES(
+TC1=8e-05 
+TC2=5.28e-07)
RS1 10 12 0.004125
VDROPX 18 17 0.77
HSENSE1 35 2 VSENS1 6.66667
RISC 30 2 RISC 10000
.MODEL RISC RES(TC1=0)
ROV 34 2 1000
VOV 33 34 18
EOV2 2 40 34 2 3.33333
FIQD 3 2 VSENS1 0
RY 52 54 2e+07
RA 72 73 2.30806e+07
RYR 71 72 2.81738e+06
CRA 52 73 6.14545e-13
HSTEP 76 2 VSENS1 0.04125
CSTEP 76 77 5.30516e-06
.ENDS ncp1117_25-x
*$
.SUBCKT ncp1117_20-x 3 1 2
**************************************
*      Model Generated by MODPEX     *
*Copyright(c) Symmetry Design Systems*
*         All Rights Reserved        *
*    UNPUBLISHED LICENSED SOFTWARE   *
*   Contains Proprietary Information *
*      Which is The Property of      *
*     SYMMETRY OR ITS LICENSORS      *
*   Modeling services provided by    *
*      Interface Technologies        *
*            www.i-t.com             *
**************************************
*Model generated on 12/19/2004
*Rev. Date: Dec. 20, 1994
*Positive Fixed Regulator
*External Node Designations
*node 1: VREG (OUTPUT)
*node 2: Ground (Common)
*node 3: Line Voltage
ECCX 131 2 135 2 1.0
VXX 133 2 DC 0
FSET6 2 135 VSENS2 1
FPP 3 2 VXX 1.0
R_YY 31 2 1e6
R_XX 15 2 1e8
R_ZZ 36 2 1e6
R_QQ 65 2 1e8
RXX 1 2 1e8
VSENS1 10 1 DC 0
ISET 2 15 DC 1e-3
DON1 15 16 DMOD1
VSENS2 16 19 DC 0
DON2 15 17 DMOD1
EON2 18 2 3 2 1
FYY 3 2 VSENS1 1
DON3 15 27 DMOD1
VDROP3 28 27 DC 2
EON3 28 2 3 2 4
ELINE 13 42 66 2 1
FSET2 2 36 VSENS2 1
DSC1 36 35 DMOD1
RCL1 36 37 10
DSC2 37 38 DMOD1
ESCCON 38 39 30 2 1
VSCCON 39 40 DC 0
FSC 19 2 VSCCON 1
FSET3 2 31 VSENS2 1
DOV1 31 32 DMOD1
EOV1 32 2 3 1 1
DOV2 31 33 DMOD1
ISET4 2 30 DC 1e-3
ELOAD 41 2 77 2 -1
ERIPPLE 42 41 72 2 1
EREF 12 13 19 2 1
E3 52 2 3 2 1
CBYPS 54 2 0.001
VORB 54 60 DC 0
RB 60 2 1e3
RBR 72 2 1000
CBS2 52 71 1
RSTEP 77 2 1
FRB 2 65 VORB 1
DRB2 65 67 DMOD1
VXRB 67 68 DC -1
EXRB 68 2 1 2 1
DRB1 65 66 DMOD1
RB1 66 2 1000
.MODEL DMOD1 D
*-- DMOD1 DEFAULT PARAMETERS
*IS=1e-14 RS=0 N=1 TT=0 CJO=0
*VJ=1 M=0.5 EG=1.11 XTI=3 FC=0.5
*KF=0 AF=1 BV=inf IBV=1e-3 TNOM=27
EXX 132 131 3 131 2.66667e-06
RST6 135 2 12000
RIQX 133 132 RQIX 2666.67
.MODEL RQIX RES(TC1=-0.001163)
RSET 19 2 RSET 2000
.MODEL RSET RES(
+TC1=8e-05 
+TC2=5.28e-07)
RS1 10 12 0.00375
VDROPX 18 17 0.77
HSENSE1 35 2 VSENS1 6.66667
RISC 30 2 RISC 10000
.MODEL RISC RES(TC1=0)
ROV 34 2 1000
VOV 33 34 18
EOV2 2 40 34 2 3.33333
FIQD 3 2 VSENS1 0
RY 52 54 2e+06
RA 72 73 2.5899e+07
RYR 71 72 3.16128e+06
CRA 52 73 5.47672e-13
HSTEP 76 2 VSENS1 0.0375
CSTEP 76 77 5.30516e-06
.ENDS ncp1117_20-x
*$
.SUBCKT ncp1117_18-x 3 1 2
**************************************
*      Model Generated by MODPEX     *
*Copyright(c) Symmetry Design Systems*
*         All Rights Reserved        *
*    UNPUBLISHED LICENSED SOFTWARE   *
*   Contains Proprietary Information *
*      Which is The Property of      *
*     SYMMETRY OR ITS LICENSORS      *
*   Modeling services provided by    *
*      Interface Technologies        *
*            www.i-t.com             *
**************************************
*Model generated on 12/19/2004
*Rev. Date: Dec. 20, 1994
*Positive Fixed Regulator
*External Node Designations
*node 1: VREG (OUTPUT)
*node 2: Ground (Common)
*node 3: Line Voltage
ECCX 131 2 135 2 1.0
VXX 133 2 DC 0
FSET6 2 135 VSENS2 1
FPP 3 2 VXX 1.0
R_YY 31 2 1e6
R_XX 15 2 1e8
R_ZZ 36 2 1e6
R_QQ 65 2 1e8
RXX 1 2 1e8
VSENS1 10 1 DC 0
ISET 2 15 DC 1e-3
DON1 15 16 DMOD1
VSENS2 16 19 DC 0
DON2 15 17 DMOD1
EON2 18 2 3 2 1
FYY 3 2 VSENS1 1
DON3 15 27 DMOD1
VDROP3 28 27 DC 2
EON3 28 2 3 2 4
ELINE 13 42 66 2 1
FSET2 2 36 VSENS2 1
DSC1 36 35 DMOD1
RCL1 36 37 10
DSC2 37 38 DMOD1
ESCCON 38 39 30 2 1
VSCCON 39 40 DC 0
FSC 19 2 VSCCON 1
FSET3 2 31 VSENS2 1
DOV1 31 32 DMOD1
EOV1 32 2 3 1 1
DOV2 31 33 DMOD1
ISET4 2 30 DC 1e-3
ELOAD 41 2 77 2 -1
ERIPPLE 42 41 72 2 1
EREF 12 13 19 2 1
E3 52 2 3 2 1
CBYPS 54 2 0.001
VORB 54 60 DC 0
RB 60 2 1e3
RBR 72 2 1000
CBS2 52 71 1
RSTEP 77 2 1
FRB 2 65 VORB 1
DRB2 65 67 DMOD1
VXRB 67 68 DC -1
EXRB 68 2 1 2 1
DRB1 65 66 DMOD1
RB1 66 2 1000
.MODEL DMOD1 D
*-- DMOD1 DEFAULT PARAMETERS
*IS=1e-14 RS=0 N=1 TT=0 CJO=0
*VJ=1 M=0.5 EG=1.11 XTI=3 FC=0.5
*KF=0 AF=1 BV=inf IBV=1e-3 TNOM=27
EXX 132 131 3 131 2.80952e-06
RST6 135 2 11800
RIQX 133 132 RQIX 2809.52
.MODEL RQIX RES(TC1=-0.001163)
RSET 19 2 RSET 1800
.MODEL RSET RES(
+TC1=8e-05 
+TC2=5.28e-07)
RS1 10 12 0.00325
VDROPX 18 17 0.77
HSENSE1 35 2 VSENS1 6.66667
RISC 30 2 RISC 10000
.MODEL RISC RES(TC1=0)
ROV 34 2 1000
VOV 33 34 18
EOV2 2 40 34 2 3.33333
FIQD 3 2 VSENS1 0
RY 52 54 2.52525e+06
RA 72 73 1.08219e+07
RYR 71 72 4.46584e+06
CRA 52 73 1.04107e-12
HSTEP 76 2 VSENS1 0.0325
CSTEP 76 77 5.30516e-06
.ENDS ncp1117_18-x
*$
.SUBCKT ncp1117_15-x 3 1 2
**************************************
*      Model Generated by MODPEX     *
*Copyright(c) Symmetry Design Systems*
*         All Rights Reserved        *
*    UNPUBLISHED LICENSED SOFTWARE   *
*   Contains Proprietary Information *
*      Which is The Property of      *
*     SYMMETRY OR ITS LICENSORS      *
*   Modeling services provided by    *
*      Interface Technologies        *
*            www.i-t.com             *
**************************************
*Model generated on 12/19/2004
*Rev. Date: Dec. 20, 1994
*Positive Fixed Regulator
*External Node Designations
*node 1: VREG (OUTPUT)
*node 2: Ground (Common)
*node 3: Line Voltage
ECCX 131 2 135 2 1.0
VXX 133 2 DC 0
FSET6 2 135 VSENS2 1
FPP 3 2 VXX 1.0
R_YY 31 2 1e6
R_XX 15 2 1e8
R_ZZ 36 2 1e6
R_QQ 65 2 1e8
RXX 1 2 1e8
VSENS1 10 1 DC 0
ISET 2 15 DC 1e-3
DON1 15 16 DMOD1
VSENS2 16 19 DC 0
DON2 15 17 DMOD1
EON2 18 2 3 2 1
FYY 3 2 VSENS1 1
DON3 15 27 DMOD1
VDROP3 28 27 DC 2
EON3 28 2 3 2 4
ELINE 13 42 66 2 1
FSET2 2 36 VSENS2 1
DSC1 36 35 DMOD1
RCL1 36 37 10
DSC2 37 38 DMOD1
ESCCON 38 39 30 2 1
VSCCON 39 40 DC 0
FSC 19 2 VSCCON 1
FSET3 2 31 VSENS2 1
DOV1 31 32 DMOD1
EOV1 32 2 3 1 1
DOV2 31 33 DMOD1
ISET4 2 30 DC 1e-3
ELOAD 41 2 77 2 -1
ERIPPLE 42 41 72 2 1
EREF 12 13 19 2 1
E3 52 2 3 2 1
CBYPS 54 2 0.001
VORB 54 60 DC 0
RB 60 2 1e3
RBR 72 2 1000
CBS2 52 71 1
RSTEP 77 2 1
FRB 2 65 VORB 1
DRB2 65 67 DMOD1
VXRB 67 68 DC -1
EXRB 68 2 1 2 1
DRB1 65 66 DMOD1
RB1 66 2 1000
.MODEL DMOD1 D
*-- DMOD1 DEFAULT PARAMETERS
*IS=1e-14 RS=0 N=1 TT=0 CJO=0
*VJ=1 M=0.5 EG=1.11 XTI=3 FC=0.5
*KF=0 AF=1 BV=inf IBV=1e-3 TNOM=27
EXX 132 131 3 131 3.19444e-06
RST6 135 2 11500
RIQX 133 132 RQIX 3194.44
.MODEL RQIX RES(TC1=-0.001163)
RSET 19 2 RSET 1500
.MODEL RSET RES(
+TC1=8e-05 
+TC2=5.28e-07)
RS1 10 12 0.002875
VDROPX 18 17 0.77
HSENSE1 35 2 VSENS1 6.66667
RISC 30 2 RISC 10000
.MODEL RISC RES(TC1=0)
ROV 34 2 1000
VOV 33 34 18
EOV2 2 40 34 2 3.33333
FIQD 3 2 VSENS1 0
RY 52 54 3.33333e+06
RA 72 73 1.08219e+07
RYR 71 72 4.46584e+06
CRA 52 73 1.04107e-12
HSTEP 76 2 VSENS1 0.02875
CSTEP 76 77 5.30516e-06
.ENDS ncp1117_15-x
*$
*////////////////////////////////////////////////////////////////////////////////
* http://www.vishay.com/how/design-support-tools/
* http://www.vishay.com/docs/64516/si9933cd.txt
.SUBCKT Si9933CDY D G S 
M1 3 GX S S PMOS W= 1144000u L= 0.25u 
M2 S GX S D NMOS W= 1144000u L= 4.454e-07 
R1 D 3 1.437e-02 TC=8.786e-03, 5.629e-06 
CGS GX S 2.350e-10 
CGD GX D 1.850e-11 
RG G GY 6
RTCV 100 S 1e6 TC=-5.878e-05, -3.217e-07 
ETCV GY GX 100 200 1 
ITCV S 100 1u 
VTCV 200 S 1 
DBD D S DBD 
**************************************************************** 
.MODEL PMOS PMOS ( LEVEL = 3 TOX = 3e-8 
+ RS = 2.005e-02 KP = 5.501e-06 NSUB = 1.317e+16 
+ KAPPA = 1e-2 ETA = 1.857e-04 NFS = 1.768e+12 
+ LD = 0 IS = 0 TPG = -1) 
*************************************************************** 
.MODEL NMOS NMOS ( LEVEL = 3 TOX = 3e-8 
+NSUB = 4.151e+16 IS = 0 TPG = -1 ) 
**************************************************************** 
.MODEL DBD D ( 
+FC = 0.1 TT = 2.000e-07 T_MEASURED = 25 BV = 21 
+RS = 2.124e-02 N = 1.285e+00 IS = 3.388e-10 
+EG = 1.012e+00 XTI = 2.909e+00 TRS1 = 1.000e-05 
+CJO = 1.352e-10 VJ = 2.639e-01 M = 2.956e-01 ) 
.ENDS 
*$
*////////////////////////////////////////////////////////////////////////////////
*SRC=1N4937;DI_1N4937;Diodes;Si;  600V  1.00A  200ns   Diodes Inc. Fast
Rectifier
.MODEL DI_1N4937 D  ( IS=830n RS=34.0m BV=600 IBV=5.00u
+ CJO=26.5p  M=0.333 N=2.46 TT=288n )
*$
*////////////////////////////////////////////////////////////////////////////////
* http://www.onsemi.com/pub_link/Collateral/2N7002L.REV0.LIB
.SUBCKT 2n7002l 1 2 3
**************************************
*      Model Generated by MODPEX     *
*Copyright(c) Symmetry Design Systems*
*         All Rights Reserved        *
*    UNPUBLISHED LICENSED SOFTWARE   *
*   Contains Proprietary Information *
*      Which is The Property of      *
*     SYMMETRY OR ITS LICENSORS      *
*Commercial Use or Resale Restricted *
*   by Symmetry License Agreement    *
**************************************
* Model generated on Sep  8, 04
* MODEL FORMAT: PSpice
* Symmetry POWER MOS Model (Version 1.0)
* External Node Designations
* Node 1 -> Drain
* Node 2 -> Gate
* Node 3 -> Source
M1 9 7 8 8 MM L=100u W=100u
* Default values used in MM:
* The voltage-dependent capacitances are
* not included. Other default values are:
*   RS=0 RD=0 LD=0 CBD=0 CBS=0 CGBO=0
.MODEL MM NMOS LEVEL=1 IS=1e-32
+VTO=3.00733 LAMBDA=0 KP=0.185175
+CGSO=1.92594e-07 CGDO=2.10455e-08
RS 8 3 1.76219
D1 3 1 MD
.MODEL MD D IS=1.02452e-12 RS=0.0121594 N=1.5 BV=60
+IBV=0.00025 EG=1.12981 XTI=3.00051 TT=0
+CJO=3.2506e-11 VJ=4.6116 M=0.899164 FC=0.1
RDS 3 1 6e+09
RD 9 1 0.0001
RG 2 7 6
D2 4 5 MD1
* Default values used in MD1:
*   RS=0 EG=1.11 XTI=3.0 TT=0
*   BV=infinite IBV=1mA
.MODEL MD1 D IS=1e-32 N=50
+CJO=2.58779e-12 VJ=0.860656 M=0.771491 FC=1e-08
D3 0 5 MD2
* Default values used in MD2:
*   EG=1.11 XTI=3.0 TT=0 CJO=0
*   BV=infinite IBV=1mA
.MODEL MD2 D IS=1e-10 N=0.4 RS=3e-06
RL 5 10 1
FI2 7 9 VFI2 -1
VFI2 4 0 0
EV16 10 0 9 7 1
CAP 11 10 2.24806e-10
FI1 7 9 VFI1 -1
VFI1 11 6 0
RCAP 6 10 1
D4 0 6 MD3
* Default values used in MD3:
*   EG=1.11 XTI=3.0 TT=0 CJO=0
*   RS=0 BV=infinite IBV=1mA
.MODEL MD3 D IS=1e-10 N=0.4
.ENDS 2n7002l
*$
*////////////////////////////////////////////////////////////////////////////////
.SUBCKT 2N7002_nxp 1 2 3
* 1=drain  2=gate  3=source
Cgs  6 3 12.3e-12
Cgd1 6 4 27.4e-12
Cgd2 1 4 6e-12
M1 5 6 3 3 MOST1
M2 4 6 5 3 MOST2
D1 3 1 Dbody
Rd 5 1 Rtemp 2.3
Rg 2 6 15
.MODEL MOST1 NMOS (LEVEL=3 W=0.1 L=0.3e-6 Vto=2.014 Kp=3.09e-7
+                          RS=0 RD=0 UO=650 VMAX=0 XJ=0.5E-6 KAPPA=10E-2
+                          ETA=3e-6 TPG=1 IS=0 LD=0 WD=0 CGSO=0 CGDO=0
+                          CGBO=0 NFS=4.9e12 DELTA=0.1)
.MODEL MOST2 NMOS (LEVEL=3 W=0.1 L=0.3e-6 Vto=-5.69 Kp=0.315e-5 